Circuit: * F:\Classroom\EEE 466 VLSI\Final\Faiyaz\Assignment 3\Current Source.asc

Instance "m2": Length shorter than recommended for a level 1 MOSFET.
Instance "m1": Length shorter than recommended for a level 1 MOSFET.
.dc sweep increment has wrong sign -- fixing...

Date: Wed Sep 16 01:08:29 2020
Total elapsed time: 1.435 seconds.

tnom = 27
temp = 27
method = trap
totiter = 1000008
traniter = 0
tranpoints = 0
accept = 0
rejected = 0
matrix size = 5
fillins = 0
solver = Normal
Matrix Compiler1: 114 bytes object code size  0.0/0.0/[0.0]
Matrix Compiler2:      26 opcodes  0.0/[0.0]/0.0

