Circuit: * F:\Classroom\EEE 466 VLSI\Final\Faiyaz\New folder\RD.asc

WARNING: Node VOUT is floating.

WARNING: Less than two connections to node VOUT.  This node is used by C1.
Instance "m1": Length shorter than recommended for a level 1 MOSFET.
Instance "m1": Width narrower than recommended for a level 1 MOSFET.
Direct Newton iteration for .op point succeeded.

Date: Wed Sep 16 00:39:59 2020
Total elapsed time: 0.075 seconds.

tnom = 27
temp = 27
method = trap
totiter = 4
traniter = 0
tranpoints = 0
accept = 0
rejected = 0
matrix size = 8
fillins = 0
solver = Normal
Matrix Compiler1:      12 opcodes
Matrix Compiler2: 492 bytes object code size
