Circuit: * C:\Users\ashra\Desktop\Assignment 2\3 Input NAND Dynamic Logic Static Bleeder.asc

WARNING: Node N002 is floating.
WARNING: Node N006 is floating.
WARNING: Node N009 is floating.
WARNING: Node N012 is floating.
WARNING: Node N014 is floating.
WARNING: Node N003 is floating.

Instance "m1": Length shorter than recommended for a level 1 MOSFET.
Instance "m1": Width narrower than recommended for a level 1 MOSFET.
Instance "m6": Length shorter than recommended for a level 1 MOSFET.
Instance "m6": Width narrower than recommended for a level 1 MOSFET.
Instance "m5": Length shorter than recommended for a level 1 MOSFET.
Instance "m5": Width narrower than recommended for a level 1 MOSFET.
Instance "m4": Length shorter than recommended for a level 1 MOSFET.
Instance "m4": Width narrower than recommended for a level 1 MOSFET.
Instance "m3": Length shorter than recommended for a level 1 MOSFET.
Instance "m3": Width narrower than recommended for a level 1 MOSFET.
Instance "m2": Length shorter than recommended for a level 1 MOSFET.
Instance "m2": Width narrower than recommended for a level 1 MOSFET.
Direct Newton iteration for .op point succeeded.

Date: Sun Aug 09 00:19:56 2020
Total elapsed time: 0.230 seconds.

tnom = 27
temp = 27
method = modified trap
totiter = 24184
traniter = 24159
tranpoints = 10989
accept = 10749
rejected = 240
matrix size = 20
fillins = 0
solver = Normal
Matrix Compiler1: 1.13 KB object code size  0.2/0.1/[0.1]
Matrix Compiler2: off  [0.1]/0.2/0.1

