Circuit: * G:\Classroom\EEE 466 VLSI\Assignment 2\3 Input NAND Pseudo-NMOS.asc

WARNING: Node N002 is floating.
WARNING: Node N004 is floating.
WARNING: Node N007 is floating.
WARNING: Node N010 is floating.

Instance "m6": Length shorter than recommended for a level 1 MOSFET.
Instance "m6": Width narrower than recommended for a level 1 MOSFET.
Instance "m5": Length shorter than recommended for a level 1 MOSFET.
Instance "m5": Width narrower than recommended for a level 1 MOSFET.
Instance "m4": Length shorter than recommended for a level 1 MOSFET.
Instance "m4": Width narrower than recommended for a level 1 MOSFET.
Instance "m2": Length shorter than recommended for a level 1 MOSFET.
Instance "m2": Width narrower than recommended for a level 1 MOSFET.
Direct Newton iteration for .op point succeeded.

Date: Sat Aug 08 20:45:37 2020
Total elapsed time: 0.213 seconds.

tnom = 27
temp = 27
method = modified trap
totiter = 23502
traniter = 23477
tranpoints = 10911
accept = 10698
rejected = 213
matrix size = 15
fillins = 0
solver = Normal
Matrix Compiler1:      45 opcodes  0.1/[0.1]/0.1
Matrix Compiler2: off  [0.1]/0.1/0.1

