Circuit: * C:\Users\ashra\Desktop\Assignment 2\3 Input NAND CMOS.asc

WARNING: Node N002 is floating.
WARNING: Node N003 is floating.
WARNING: Node N004 is floating.
WARNING: Node N008 is floating.
WARNING: Node N010 is floating.
WARNING: Node N012 is floating.

Instance "m6": Length shorter than recommended for a level 1 MOSFET.
Instance "m6": Width narrower than recommended for a level 1 MOSFET.
Instance "m5": Length shorter than recommended for a level 1 MOSFET.
Instance "m5": Width narrower than recommended for a level 1 MOSFET.
Instance "m4": Length shorter than recommended for a level 1 MOSFET.
Instance "m4": Width narrower than recommended for a level 1 MOSFET.
Instance "m3": Length shorter than recommended for a level 1 MOSFET.
Instance "m3": Width narrower than recommended for a level 1 MOSFET.
Instance "m2": Length shorter than recommended for a level 1 MOSFET.
Instance "m2": Width narrower than recommended for a level 1 MOSFET.
Instance "m1": Length shorter than recommended for a level 1 MOSFET.
Instance "m1": Width narrower than recommended for a level 1 MOSFET.
Direct Newton iteration for .op point succeeded.

Date: Sun Aug 09 00:19:12 2020
Total elapsed time: 0.239 seconds.

tnom = 27
temp = 27
method = modified trap
totiter = 28092
traniter = 28068
tranpoints = 11128
accept = 10844
rejected = 284
matrix size = 17
fillins = 0
solver = Normal
Matrix Compiler1: 1000 bytes object code size  0.1/0.1/[0.1]
Matrix Compiler2: 1.75 KB object code size  0.1/0.2/[0.1]

